LTspice 26.0.1 for Windows
Circuit: C:\Users\gugan\OneDrive - UBC\Documents\GitHub\Werable BioNode\Design Docs\Ltspice\Analog PDN Filters.net
Start Time: Sat May 16 17:49:27 2026
solver = Normal
Maximum thread count: 24
tnom = 27
temp = 27
method = trap
Direct Newton iteration succeeded in finding operating point.
Total elapsed time: 0.086 seconds.

Files loaded:
C:\Users\gugan\OneDrive - UBC\Documents\GitHub\Werable BioNode\Design Docs\Ltspice\Analog PDN Filters.net
C:\Users\gugan\OneDrive - UBC\Documents\GitHub\Werable BioNode\Design Docs\Ltspice\BLM15EG221SN1.mod
C:\Users\gugan\OneDrive - UBC\Documents\GitHub\Werable BioNode\Design Docs\Ltspice\GRM033R61C104KE18_DC0V_25degC.mod
C:\Users\gugan\OneDrive - UBC\Documents\GitHub\Werable BioNode\Design Docs\Ltspice\GCQ1555C1H100JB01_DC0V_25degC.mod
C:\Users\gugan\OneDrive - UBC\Documents\GitHub\Werable BioNode\Design Docs\Ltspice\GRT155R61E105KE01_DC0V_25degC.mod
C:\Users\gugan\OneDrive - UBC\Documents\GitHub\Werable BioNode\Design Docs\Ltspice\LQM18PH1R0MFC.mod
C:\Users\gugan\OneDrive - UBC\Documents\GitHub\Werable BioNode\Design Docs\Ltspice\GRM1555C1H8R0BA01_DC0V_25degC.mod
C:\Users\gugan\OneDrive - UBC\Documents\GitHub\Werable BioNode\Design Docs\Ltspice\GRM1555C1H1R0BA01_DC0V_25degC.mod

